{
   "completed_at" : "20180330T194620Z",
   "completed_status" : "Success",
   "created_at" : "20180330T170511Z",
   "current_step" : 58,
   "eplusout_err" : "Program Version,EnergyPlus, Version 8.8.0-7c3bbe4830, YMD=2018.03.30 13:43,IDD_Version 8.8.0\n   ** Warning ** Site:GroundTemperature:BuildingSurface: Some values fall outside the range of 15-25C.\n   **   ~~~   ** These values may be inappropriate.  Please consult the Input Output Reference for more details.\n   ** Warning ** ProcessScheduleInput: Schedule:Day:Interval=\"RES INFIL_1 BATH EXHAUST SCHEDULE ALLDAY1\", Blank Schedule Type Limits Name input -- will not be validated.\n   ** Warning ** ProcessScheduleInput: Schedule:Day:Interval=\"RES INFIL_1 BATH EXHAUST SCHEDULE ALLDAY10\", Blank Schedule Type Limits Name input -- will not be validated.\n   ** Warning ** ProcessScheduleInput: Schedule:Day:Interval=\"RES INFIL_1 BATH EXHAUST SCHEDULE ALLDAY11\", Blank Schedule Type Limits Name input -- will not be validated.\n   ** Warning ** ProcessScheduleInput: Schedule:Day:Interval=\"RES INFIL_1 BATH EXHAUST SCHEDULE ALLDAY12\", Blank Schedule Type Limits Name input -- will not be validated.\n   ** Warning ** ProcessScheduleInput: Schedule:Day:Interval=\"RES INFIL_1 BATH EXHAUST SCHEDULE ALLDAY2\", Blank Schedule Type Limits Name input -- will not be validated.\n   ** Warning ** ProcessScheduleInput: Schedule:Day:Interval=\"RES INFIL_1 BATH EXHAUST SCHEDULE ALLDAY3\", Blank Schedule Type Limits Name input -- will not be validated.\n   ** Warning ** ProcessScheduleInput: Schedule:Day:Interval=\"RES INFIL_1 BATH EXHAUST SCHEDULE ALLDAY4\", Blank Schedule Type Limits Name input -- will not be validated.\n   ** Warning ** ProcessScheduleInput: Schedule:Day:Interval=\"RES INFIL_1 BATH EXHAUST SCHEDULE ALLDAY5\", Blank Schedule Type Limits Name input -- will not be validated.\n   ** Warning ** ProcessScheduleInput: Schedule:Day:Interval=\"RES INFIL_1 BATH EXHAUST SCHEDULE ALLDAY6\", Blank Schedule Type Limits Name input -- will not be validated.\n   ** Warning ** ProcessScheduleInput: Schedule:Day:Interval=\"RES INFIL_1 BATH EXHAUST SCHEDULE ALLDAY7\", Blank Schedule Type Limits Name input -- will not be validated.\n   ** Warning ** ProcessScheduleInput: Schedule:Day:Interval=\"RES INFIL_1 BATH EXHAUST SCHEDULE ALLDAY8\", Blank Schedule Type Limits Name input -- will not be validated.\n   ** Warning ** ProcessScheduleInput: Schedule:Day:Interval=\"RES INFIL_1 BATH EXHAUST SCHEDULE ALLDAY9\", Blank Schedule Type Limits Name input -- will not be validated.\n   ** Warning ** ProcessScheduleInput: Schedule:Day:Interval=\"RES INFIL_1 RANGE HOOD SCHEDULE ALLDAY1\", Blank Schedule Type Limits Name input -- will not be validated.\n   ** Warning ** ProcessScheduleInput: Schedule:Day:Interval=\"RES INFIL_1 RANGE HOOD SCHEDULE ALLDAY10\", Blank Schedule Type Limits Name input -- will not be validated.\n   ** Warning ** ProcessScheduleInput: Schedule:Day:Interval=\"RES INFIL_1 RANGE HOOD SCHEDULE ALLDAY11\", Blank Schedule Type Limits Name input -- will not be validated.\n   ** Warning ** ProcessScheduleInput: Schedule:Day:Interval=\"RES INFIL_1 RANGE HOOD SCHEDULE ALLDAY12\", Blank Schedule Type Limits Name input -- will not be validated.\n   ** Warning ** ProcessScheduleInput: Schedule:Day:Interval=\"RES INFIL_1 RANGE HOOD SCHEDULE ALLDAY2\", Blank Schedule Type Limits Name input -- will not be validated.\n   ** Warning ** ProcessScheduleInput: Schedule:Day:Interval=\"RES INFIL_1 RANGE HOOD SCHEDULE ALLDAY3\", Blank Schedule Type Limits Name input -- will not be validated.\n   ** Warning ** ProcessScheduleInput: Schedule:Day:Interval=\"RES INFIL_1 RANGE HOOD SCHEDULE ALLDAY4\", Blank Schedule Type Limits Name input -- will not be validated.\n   ** Warning ** ProcessScheduleInput: Schedule:Day:Interval=\"RES INFIL_1 RANGE HOOD SCHEDULE ALLDAY5\", Blank Schedule Type Limits Name input -- will not be validated.\n   ** Warning ** ProcessScheduleInput: Schedule:Day:Interval=\"RES INFIL_1 RANGE HOOD SCHEDULE ALLDAY6\", Blank Schedule Type Limits Name input -- will not be validated.\n   ** Warning ** ProcessScheduleInput: Schedule:Day:Interval=\"RES INFIL_1 RANGE HOOD SCHEDULE ALLDAY7\", Blank Schedule Type Limits Name input -- will not be validated.\n   ** Warning ** ProcessScheduleInput: Schedule:Day:Interval=\"RES INFIL_1 RANGE HOOD SCHEDULE ALLDAY8\", Blank Schedule Type Limits Name input -- will not be validated.\n   ** Warning ** ProcessScheduleInput: Schedule:Day:Interval=\"RES INFIL_1 RANGE HOOD SCHEDULE ALLDAY9\", Blank Schedule Type Limits Name input -- will not be validated.\n   ** Warning ** ProcessScheduleInput: Schedule:Day:Interval=\"RES MV_1 ENERGY SCHEDULE ALLDAY1\", Blank Schedule Type Limits Name input -- will not be validated.\n   ** Warning ** ProcessScheduleInput: Schedule:Day:Interval=\"RES MV_1 ENERGY SCHEDULE ALLDAY10\", Blank Schedule Type Limits Name input -- will not be validated.\n   ** Warning ** ProcessScheduleInput: Schedule:Day:Interval=\"RES MV_1 ENERGY SCHEDULE ALLDAY11\", Blank Schedule Type Limits Name input -- will not be validated.\n   ** Warning ** ProcessScheduleInput: Schedule:Day:Interval=\"RES MV_1 ENERGY SCHEDULE ALLDAY12\", Blank Schedule Type Limits Name input -- will not be validated.\n   ** Warning ** ProcessScheduleInput: Schedule:Day:Interval=\"RES MV_1 ENERGY SCHEDULE ALLDAY2\", Blank Schedule Type Limits Name input -- will not be validated.\n   ** Warning ** ProcessScheduleInput: Schedule:Day:Interval=\"RES MV_1 ENERGY SCHEDULE ALLDAY3\", Blank Schedule Type Limits Name input -- will not be validated.\n   ** Warning ** ProcessScheduleInput: Schedule:Day:Interval=\"RES MV_1 ENERGY SCHEDULE ALLDAY4\", Blank Schedule Type Limits Name input -- will not be validated.\n   ** Warning ** ProcessScheduleInput: Schedule:Day:Interval=\"RES MV_1 ENERGY SCHEDULE ALLDAY5\", Blank Schedule Type Limits Name input -- will not be validated.\n   ** Warning ** ProcessScheduleInput: Schedule:Day:Interval=\"RES MV_1 ENERGY SCHEDULE ALLDAY6\", Blank Schedule Type Limits Name input -- will not be validated.\n   ** Warning ** ProcessScheduleInput: Schedule:Day:Interval=\"RES MV_1 ENERGY SCHEDULE ALLDAY7\", Blank Schedule Type Limits Name input -- will not be validated.\n   ** Warning ** ProcessScheduleInput: Schedule:Day:Interval=\"RES MV_1 ENERGY SCHEDULE ALLDAY8\", Blank Schedule Type Limits Name input -- will not be validated.\n   ** Warning ** ProcessScheduleInput: Schedule:Day:Interval=\"RES MV_1 ENERGY SCHEDULE ALLDAY9\", Blank Schedule Type Limits Name input -- will not be validated.\n   ** Warning ** ProcessScheduleInput: Schedule:Day:Interval=\"RES MV_1 SCHEDULE ALLDAY1\", Blank Schedule Type Limits Name input -- will not be validated.\n   ** Warning ** ProcessScheduleInput: Schedule:Day:Interval=\"RES MV_1 SCHEDULE ALLDAY10\", Blank Schedule Type Limits Name input -- will not be validated.\n   ** Warning ** ProcessScheduleInput: Schedule:Day:Interval=\"RES MV_1 SCHEDULE ALLDAY11\", Blank Schedule Type Limits Name input -- will not be validated.\n   ** Warning ** ProcessScheduleInput: Schedule:Day:Interval=\"RES MV_1 SCHEDULE ALLDAY12\", Blank Schedule Type Limits Name input -- will not be validated.\n   ** Warning ** ProcessScheduleInput: Schedule:Day:Interval=\"RES MV_1 SCHEDULE ALLDAY2\", Blank Schedule Type Limits Name input -- will not be validated.\n   ** Warning ** ProcessScheduleInput: Schedule:Day:Interval=\"RES MV_1 SCHEDULE ALLDAY3\", Blank Schedule Type Limits Name input -- will not be validated.\n   ** Warning ** ProcessScheduleInput: Schedule:Day:Interval=\"RES MV_1 SCHEDULE ALLDAY4\", Blank Schedule Type Limits Name input -- will not be validated.\n   ** Warning ** ProcessScheduleInput: Schedule:Day:Interval=\"RES MV_1 SCHEDULE ALLDAY5\", Blank Schedule Type Limits Name input -- will not be validated.\n   ** Warning ** ProcessScheduleInput: Schedule:Day:Interval=\"RES MV_1 SCHEDULE ALLDAY6\", Blank Schedule Type Limits Name input -- will not be validated.\n   ** Warning ** ProcessScheduleInput: Schedule:Day:Interval=\"RES MV_1 SCHEDULE ALLDAY7\", Blank Schedule Type Limits Name input -- will not be validated.\n   ** Warning ** ProcessScheduleInput: Schedule:Day:Interval=\"RES MV_1 SCHEDULE ALLDAY8\", Blank Schedule Type Limits Name input -- will not be validated.\n   ** Warning ** ProcessScheduleInput: Schedule:Day:Interval=\"RES MV_1 SCHEDULE ALLDAY9\", Blank Schedule Type Limits Name input -- will not be validated.\n   ** Warning ** ProcessScheduleInput: Schedule:Day:Interval=\"RES NV_1 AVAILABILITY SCHEDULE ALLDAY1 ON\", Blank Schedule Type Limits Name input -- will not be validated.\n   ** Warning ** ProcessScheduleInput: Schedule:Day:Interval=\"RES NV_1 AVAILABILITY SCHEDULE ALLDAY1 ON 1\", Blank Schedule Type Limits Name input -- will not be validated.\n   ** Warning ** ProcessScheduleInput: Schedule:Day:Interval=\"RES NV_1 AVAILABILITY SCHEDULE ALLDAY1 ON 10\", Blank Schedule Type Limits Name input -- will not be validated.\n   ** Warning ** ProcessScheduleInput: Schedule:Day:Interval=\"RES NV_1 AVAILABILITY SCHEDULE ALLDAY1 ON 11\", Blank Schedule Type Limits Name input -- will not be validated.\n   ** Warning ** ProcessScheduleInput: Schedule:Day:Interval=\"RES NV_1 AVAILABILITY SCHEDULE ALLDAY1 ON 2\", Blank Schedule Type Limits Name input -- will not be validated.\n   ** Warning ** ProcessScheduleInput: Schedule:Day:Interval=\"RES NV_1 AVAILABILITY SCHEDULE ALLDAY1 ON 3\", Blank Schedule Type Limits Name input -- will not be validated.\n   ** Warning ** ProcessScheduleInput: Schedule:Day:Interval=\"RES NV_1 AVAILABILITY SCHEDULE ALLDAY1 ON 4\", Blank Schedule Type Limits Name input -- will not be validated.\n   ** Warning ** ProcessScheduleInput: Schedule:Day:Interval=\"RES NV_1 AVAILABILITY SCHEDULE ALLDAY1 ON 5\", Blank Schedule Type Limits Name input -- will not be validated.\n   ** Warning ** ProcessScheduleInput: Schedule:Day:Interval=\"RES NV_1 AVAILABILITY SCHEDULE ALLDAY1 ON 6\", Blank Schedule Type Limits Name input -- will not be validated.\n   ** Warning ** ProcessScheduleInput: Schedule:Day:Interval=\"RES NV_1 AVAILABILITY SCHEDULE ALLDAY1 ON 7\", Blank Schedule Type Limits Name input -- will not be validated.\n   ** Warning ** ProcessScheduleInput: Schedule:Day:Interval=\"RES NV_1 AVAILABILITY SCHEDULE ALLDAY1 ON 8\", Blank Schedule Type Limits Name input -- will not be validated.\n   ** Warning ** ProcessScheduleInput: Schedule:Day:Interval=\"RES NV_1 AVAILABILITY SCHEDULE ALLDAY1 ON 9\", Blank Schedule Type Limits Name input -- will not be validated.\n   ** Warning ** ProcessScheduleInput: Schedule:Day:Interval=\"RES NV_1 TEMP SCHEDULE ALLDAY1\", Blank Schedule Type Limits Name input -- will not be validated.\n   ** Warning ** ProcessScheduleInput: Schedule:Day:Interval=\"RES NV_1 TEMP SCHEDULE ALLDAY10\", Blank Schedule Type Limits Name input -- will not be validated.\n   ** Warning ** ProcessScheduleInput: Schedule:Day:Interval=\"RES NV_1 TEMP SCHEDULE ALLDAY11\", Blank Schedule Type Limits Name input -- will not be validated.\n   ** Warning ** ProcessScheduleInput: Schedule:Day:Interval=\"RES NV_1 TEMP SCHEDULE ALLDAY12\", Blank Schedule Type Limits Name input -- will not be validated.\n   ** Warning ** ProcessScheduleInput: Schedule:Day:Interval=\"RES NV_1 TEMP SCHEDULE ALLDAY2\", Blank Schedule Type Limits Name input -- will not be validated.\n   ** Warning ** ProcessScheduleInput: Schedule:Day:Interval=\"RES NV_1 TEMP SCHEDULE ALLDAY3\", Blank Schedule Type Limits Name input -- will not be validated.\n   ** Warning ** ProcessScheduleInput: Schedule:Day:Interval=\"RES NV_1 TEMP SCHEDULE ALLDAY4\", Blank Schedule Type Limits Name input -- will not be validated.\n   ** Warning ** ProcessScheduleInput: Schedule:Day:Interval=\"RES NV_1 TEMP SCHEDULE ALLDAY5\", Blank Schedule Type Limits Name input -- will not be validated.\n   ** Warning ** ProcessScheduleInput: Schedule:Day:Interval=\"RES NV_1 TEMP SCHEDULE ALLDAY6\", Blank Schedule Type Limits Name input -- will not be validated.\n   ** Warning ** ProcessScheduleInput: Schedule:Day:Interval=\"RES NV_1 TEMP SCHEDULE ALLDAY7\", Blank Schedule Type Limits Name input -- will not be validated.\n   ** Warning ** ProcessScheduleInput: Schedule:Day:Interval=\"RES NV_1 TEMP SCHEDULE ALLDAY8\", Blank Schedule Type Limits Name input -- will not be validated.\n   ** Warning ** ProcessScheduleInput: Schedule:Day:Interval=\"RES NV_1 TEMP SCHEDULE ALLDAY9\", Blank Schedule Type Limits Name input -- will not be validated.\n   ** Warning ** ProcessScheduleInput: Schedule:Day:Interval=\"RESIDENTIAL CEILING FAN SCHEDULE ALLDAY1\", Blank Schedule Type Limits Name input -- will not be validated.\n   ** Warning ** ProcessScheduleInput: Schedule:Day:Interval=\"RESIDENTIAL CEILING FAN SCHEDULE ALLDAY10\", Blank Schedule Type Limits Name input -- will not be validated.\n   ** Warning ** ProcessScheduleInput: Schedule:Day:Interval=\"RESIDENTIAL CEILING FAN SCHEDULE ALLDAY11\", Blank Schedule Type Limits Name input -- will not be validated.\n   ** Warning ** ProcessScheduleInput: Schedule:Day:Interval=\"RESIDENTIAL CEILING FAN SCHEDULE ALLDAY12\", Blank Schedule Type Limits Name input -- will not be validated.\n   ** Warning ** ProcessScheduleInput: Schedule:Day:Interval=\"RESIDENTIAL CEILING FAN SCHEDULE ALLDAY2\", Blank Schedule Type Limits Name input -- will not be validated.\n   ** Warning ** ProcessScheduleInput: Schedule:Day:Interval=\"RESIDENTIAL CEILING FAN SCHEDULE ALLDAY3\", Blank Schedule Type Limits Name input -- will not be validated.\n   ** Warning ** ProcessScheduleInput: Schedule:Day:Interval=\"RESIDENTIAL CEILING FAN SCHEDULE ALLDAY4\", Blank Schedule Type Limits Name input -- will not be validated.\n   ** Warning ** ProcessScheduleInput: Schedule:Day:Interval=\"RESIDENTIAL CEILING FAN SCHEDULE ALLDAY5\", Blank Schedule Type Limits Name input -- will not be validated.\n   ** Warning ** ProcessScheduleInput: Schedule:Day:Interval=\"RESIDENTIAL CEILING FAN SCHEDULE ALLDAY6\", Blank Schedule Type Limits Name input -- will not be validated.\n   ** Warning ** ProcessScheduleInput: Schedule:Day:Interval=\"RESIDENTIAL CEILING FAN SCHEDULE ALLDAY7\", Blank Schedule Type Limits Name input -- will not be validated.\n   ** Warning ** ProcessScheduleInput: Schedule:Day:Interval=\"RESIDENTIAL CEILING FAN SCHEDULE ALLDAY8\", Blank Schedule Type Limits Name input -- will not be validated.\n   ** Warning ** ProcessScheduleInput: Schedule:Day:Interval=\"RESIDENTIAL CEILING FAN SCHEDULE ALLDAY9\", Blank Schedule Type Limits Name input -- will not be validated.\n   ** Warning ** ProcessScheduleInput: Schedule:Day:Interval=\"RESIDENTIAL WINDOW SHADING SCHEDULE ALLDAY1\", Blank Schedule Type Limits Name input -- will not be validated.\n   ** Warning ** ProcessScheduleInput: Schedule:Day:Interval=\"RESIDENTIAL WINDOW SHADING SCHEDULE ALLDAY10\", Blank Schedule Type Limits Name input -- will not be validated.\n   ** Warning ** ProcessScheduleInput: Schedule:Day:Interval=\"RESIDENTIAL WINDOW SHADING SCHEDULE ALLDAY11\", Blank Schedule Type Limits Name input -- will not be validated.\n   ** Warning ** ProcessScheduleInput: Schedule:Day:Interval=\"RESIDENTIAL WINDOW SHADING SCHEDULE ALLDAY12\", Blank Schedule Type Limits Name input -- will not be validated.\n   ** Warning ** ProcessScheduleInput: Schedule:Day:Interval=\"RESIDENTIAL WINDOW SHADING SCHEDULE ALLDAY2\", Blank Schedule Type Limits Name input -- will not be validated.\n   ** Warning ** ProcessScheduleInput: Schedule:Day:Interval=\"RESIDENTIAL WINDOW SHADING SCHEDULE ALLDAY3\", Blank Schedule Type Limits Name input -- will not be validated.\n   ** Warning ** ProcessScheduleInput: Schedule:Day:Interval=\"RESIDENTIAL WINDOW SHADING SCHEDULE ALLDAY4\", Blank Schedule Type Limits Name input -- will not be validated.\n   ** Warning ** ProcessScheduleInput: Schedule:Day:Interval=\"RESIDENTIAL WINDOW SHADING SCHEDULE ALLDAY5\", Blank Schedule Type Limits Name input -- will not be validated.\n   ** Warning ** ProcessScheduleInput: Schedule:Day:Interval=\"RESIDENTIAL WINDOW SHADING SCHEDULE ALLDAY6\", Blank Schedule Type Limits Name input -- will not be validated.\n   ** Warning ** ProcessScheduleInput: Schedule:Day:Interval=\"RESIDENTIAL WINDOW SHADING SCHEDULE ALLDAY7\", Blank Schedule Type Limits Name input -- will not be validated.\n   ** Warning ** ProcessScheduleInput: Schedule:Day:Interval=\"RESIDENTIAL WINDOW SHADING SCHEDULE ALLDAY8\", Blank Schedule Type Limits Name input -- will not be validated.\n   ** Warning ** ProcessScheduleInput: Schedule:Day:Interval=\"RESIDENTIAL WINDOW SHADING SCHEDULE ALLDAY9\", Blank Schedule Type Limits Name input -- will not be validated.\n   ** Warning ** ProcessScheduleInput: Schedule:Day:Interval=\"SCHEDULE DAY 25\", Blank Schedule Type Limits Name input -- will not be validated.\n   ** Warning ** ProcessScheduleInput: Schedule:Day:Interval=\"SCHEDULE DAY 26\", Blank Schedule Type Limits Name input -- will not be validated.\n   ** Warning ** ProcessScheduleInput: Schedule:Day:Interval=\"SCHEDULE DAY 27\", Blank Schedule Type Limits Name input -- will not be validated.\n   ** Warning ** ProcessScheduleInput: Schedule:Day:Interval=\"SCHEDULE DAY 28\", Blank Schedule Type Limits Name input -- will not be validated.\n   ** Warning ** ProcessScheduleInput: Schedule:Day:Interval=\"SCHEDULE DAY 29\", Blank Schedule Type Limits Name input -- will not be validated.\n   ** Warning ** ProcessScheduleInput: Schedule:Day:Interval=\"SCHEDULE DAY 3\", Blank Schedule Type Limits Name input -- will not be validated.\n   ** Warning ** ProcessScheduleInput: Schedule:Day:Interval=\"SCHEDULE DAY 30\", Blank Schedule Type Limits Name input -- will not be validated.\n   ** Warning ** ProcessScheduleInput: Schedule:Day:Interval=\"SCHEDULE DAY 9\", Blank Schedule Type Limits Name input -- will not be validated.\n   ** Warning ** ProcessScheduleInput: Schedule:Year=\"RES INFIL_1 BATH EXHAUST SCHEDULE\", Blank Schedule Type Limits Name input -- will not be validated.\n   ** Warning ** ProcessScheduleInput: Schedule:Year=\"RES INFIL_1 RANGE HOOD SCHEDULE\", Blank Schedule Type Limits Name input -- will not be validated.\n   ** Warning ** ProcessScheduleInput: Schedule:Year=\"RES MV_1 ENERGY SCHEDULE\", Blank Schedule Type Limits Name input -- will not be validated.\n   ** Warning ** ProcessScheduleInput: Schedule:Year=\"RES MV_1 SCHEDULE\", Blank Schedule Type Limits Name input -- will not be validated.\n   ** Warning ** ProcessScheduleInput: Schedule:Year=\"RES NV_1 AVAIL SCHEDULE\", Blank Schedule Type Limits Name input -- will not be validated.\n   ** Warning ** ProcessScheduleInput: Schedule:Year=\"RES NV_1 TEMP SCHEDULE\", Blank Schedule Type Limits Name input -- will not be validated.\n   ** Warning ** ProcessScheduleInput: Schedule:Year=\"RESIDENTIAL CEILING FAN SCHEDULE\", Blank Schedule Type Limits Name input -- will not be validated.\n   ** Warning ** ProcessScheduleInput: Schedule:Year=\"RESIDENTIAL WINDOW SHADING SCHEDULE\", Blank Schedule Type Limits Name input -- will not be validated.\n   ** Warning ** ProcessScheduleInput: Schedule:Compact=\"RESIDENTIAL CLOTHES DRYER ELECTRIC EXHAUST SCHEDULE\", Blank Schedule Type Limits Name input -- will not be validated.\n   ** Warning ** ProcessScheduleInput: Schedule:Constant=\"RESIDENTIAL BATH TEMPERATURE SCHEDULE\", Blank Schedule Type Limits Name input -- will not be validated.\n   ** Warning ** ProcessScheduleInput: Schedule:Constant=\"RESIDENTIAL CLOTHES WASHER TEMPERATURE SCHEDULE\", Blank Schedule Type Limits Name input -- will not be validated.\n   ** Warning ** ProcessScheduleInput: Schedule:Constant=\"RESIDENTIAL DISHWASHER TEMPERATURE SCHEDULE\", Blank Schedule Type Limits Name input -- will not be validated.\n   ** Warning ** ProcessScheduleInput: Schedule:Constant=\"RESIDENTIAL SHOWER TEMPERATURE SCHEDULE\", Blank Schedule Type Limits Name input -- will not be validated.\n   ** Warning ** ProcessScheduleInput: Schedule:Constant=\"RESIDENTIAL SINK TEMPERATURE SCHEDULE\", Blank Schedule Type Limits Name input -- will not be validated.\n   ** Warning ** GetSurfaceData: Entered Zone Floor Areas differ from calculated Zone Floor Area(s).\n   **   ~~~   ** ...use Output:Diagnostics,DisplayExtraWarnings; to show more details on individual zones.\n   ************* Note that the following warning(s) may/will occur if you have not enclosed your zone completely.\n   ** Warning ** Entered Zone Volumes differ from calculated zone volume(s).\n   **   ~~~   ** ...use Output:Diagnostics,DisplayExtraWarnings; to show more details on individual zones.\n   ** Warning ** CalculateZoneVolume: 1 zone is not fully enclosed. For more details use:  Output:Diagnostics,DisplayExtrawarnings; \n   ** Warning ** CheckUsedConstructions: There are 1 nominally unused constructions in input.\n   **   ~~~   ** For explicit details on each unused construction, use Output:Diagnostics,DisplayExtraWarnings;\n   ** Warning ** DeterminePolygonOverlap: Too many figures [>200]  detected in an overlap calculation. Use Output:Diagnostics,DisplayExtraWarnings; for more details.\n   ** Warning ** GetDXCoils: Coil:Heating:DX:SingleSpeed=\"RESIDENTIAL ASHP HEATING COIL\" curve values\n   **   ~~~   ** ... Defrost Energy Input Ratio Function of Temperature Curve Name = DEFROSTEIR output is not equal to 1.0 (+ or - 10%) at rated conditions.\n   **   ~~~   ** ... Curve output at rated conditions = 0.152\n   ** Warning ** The Standard Ratings is calculated for Coil:Cooling:DX:SingleSpeed = RESIDENTIAL ASHP COOLING COIL but not at the AHRI test condition due to curve out of bound.\n   **   ~~~   **  Review the Standard Ratings calculations in the Engineering Reference for this coil type. Also, use Output:Diagnostics, DisplayExtraWarnings for further guidance.\n   ** Warning ** WaterHeater:Stratified = RES SOLAR HOT WATER STORAGE TANK:  More Additional Loss Coefficients were entered than the number of nodes; extra coefficients will not be used\n   ** Warning ** Check input. Pump nominal power or motor efficiency is set to 0, for pump=PUMP VARIABLE SPEED 1\n   ** Warning ** Output:Meter: invalid Key Name=\"DISTRICTCOOLING:FACILITY\" - not found.\n   ** Warning ** Output:Meter: invalid Key Name=\"DISTRICTHEATING:FACILITY\" - not found.\n   ** Warning ** Output:Meter:MeterFileOnly requested for \"Electricity:Facility\" (TimeStep), already on \"Output:Meter\". Will report to both eplusout.eso and eplusout.mtr\n   ************* Testing Individual Branch Integrity\n   ************* All Branches passed integrity testing\n   ************* Testing Individual Supply Air Path Integrity\n   ************* All Supply Air Paths passed integrity testing\n   ************* Testing Individual Return Air Path Integrity\n   ************* All Return Air Paths passed integrity testing\n   ************* No node connection errors were found.\n   ************* Beginning Simulation\n   ** Warning ** Processing Monthly Tabular Reports: Variable names not valid for this simulation\n   **   ~~~   ** ...use Output:Diagnostics,DisplayExtraWarnings; to show more details on individual variables.\n   ** Warning ** GetSpecificHeatGlycol: Temperature is out of range (too low) for fluid [PROPYLENEGLYCOL_50] specific heat supplied values **\n   **   ~~~   ** ..Called From:UpdateSolarCollector,Temperature=[-15.83], supplied data range=[-15.00,125.00]\n   **   ~~~   **  Environment=RUN PERIOD, at Simulation time=01/01 00:40 - 00:50\n   ** Warning ** GetDensityGlycol: Temperature is out of range (too low) for fluid [PROPYLENEGLYCOL_50] density **\n   **   ~~~   ** ..Called From:NodeReportingCalc:NODE 22,Temperature=[-15.83], supplied data range=[-15.00,125.00]\n   **   ~~~   **  Environment=RUN PERIOD, at Simulation time=01/01 00:40 - 00:43\n   ** Warning ** GetSpecificHeatGlycol: Temperature is out of range (too high) for fluid [PROPYLENEGLYCOL_50] specific heat **\n   **   ~~~   ** ..Called From:UpdateSolarCollector,Temperature=[176.51], supplied data range=[-15.00,125.00]\n   **   ~~~   **  Environment=RUN PERIOD, at Simulation time=03/10 12:20 - 12:30\n   ** Warning ** GetDensityGlycol: Temperature is out of range (too high) for fluid [PROPYLENEGLYCOL_50] density **\n   **   ~~~   ** ..Called From:NodeReportingCalc:NODE 22,Temperature=[126.22], supplied data range=[-15.00,125.00]\n   **   ~~~   **  Environment=RUN PERIOD, at Simulation time=03/19 13:30 - 13:40\n   ** Warning ** CalcDoe2DXCoil: Coil:Cooling:DX:SingleSpeed=\"RESIDENTIAL ASHP COOLING COIL\" - Air volume flow rate per watt of rated total cooling capacity is out of range at 6.821E-005 m3/s/W.\n   **   ~~~   **  Environment=RUN PERIOD, at Simulation time=05/09 16:50 - 17:00\n   **   ~~~   ** Expected range for VolumeFlowPerRatedTotalCapacity=[2.684E-005--6.713E-005]\n   **   ~~~   ** Possible causes include inconsistent air flow rates in system components,\n   **   ~~~   ** or variable air volume [VAV] system using incorrect coil type.\n   ** Warning ** Coil control failed for AirLoopHVAC:UnitarySystem:RESIDENTIAL ASHP UNITARY SYSTEM\n   **   ~~~   **   sensible part-load ratio determined to be outside the range of 0-1.\n   **   ~~~   ** Sensible load to be met = 6274.15 (watts), and the simulation continues.\n   **   ~~~   **  Environment=RUN PERIOD, at Simulation time=12/05 05:50 - 06:00\n   ** Warning ** The resource referenced by LifeCycleCost:UsePriceEscalation= \"U.S. AVG  COMMERCIAL-ELECTRICITY\" has no energy cost. \n   **   ~~~   ** ... It is likely that the wrong resource is used. The resource should match the meter used in Utility:Tariff.\n   ** Warning ** The resource referenced by LifeCycleCost:UsePriceEscalation= \"U.S. AVG  COMMERCIAL-DISTILLATE OIL\" has no energy cost. \n   **   ~~~   ** ... It is likely that the wrong resource is used. The resource should match the meter used in Utility:Tariff.\n   ** Warning ** The resource referenced by LifeCycleCost:UsePriceEscalation= \"U.S. AVG  COMMERCIAL-RESIDUAL OIL\" has no energy cost. \n   **   ~~~   ** ... It is likely that the wrong resource is used. The resource should match the meter used in Utility:Tariff.\n   ** Warning ** The resource referenced by LifeCycleCost:UsePriceEscalation= \"U.S. AVG  COMMERCIAL-NATURAL GAS\" has no energy cost. \n   **   ~~~   ** ... It is likely that the wrong resource is used. The resource should match the meter used in Utility:Tariff.\n   ** Warning ** The resource referenced by LifeCycleCost:UsePriceEscalation= \"U.S. AVG  COMMERCIAL-COAL\" has no energy cost. \n   **   ~~~   ** ... It is likely that the wrong resource is used. The resource should match the meter used in Utility:Tariff.\n   ************* Simulation Error Summary *************\n   ************* There are 2 unused schedules in input.\n   ************* There are 42 unused week schedules in input.\n   ************* There are 26 unused day schedules in input.\n   ************* Use Output:Diagnostics,DisplayUnusedSchedules; to see them.\n   *************\n   ************* ===== Recurring Surface Error Summary =====\n   ************* The following surface error messages occurred.\n   *************\n   ************* Base Surface does not surround subsurface errors occuring...\n   ************* Check that the GlobalGeometryRules object is expressing the proper starting corner and direction [CounterClockwise/Clockwise]\n   *************\n   ** Warning ** Base surface does not surround subsurface (CHKSBS), Overlap Status=No-Overlap\n   **   ~~~   **   The base surround errors occurred 1 times.\n   **   ~~~   ** Surface \"SURFACE 18\" misses SubSurface \"UNIT 1 - SURFACE 5 - DOOR\"\n   *************\n   **   ~~~   **   The base surround errors occurred 1 times (total).\n   *************\n   *************\n   ************* ===== Recurring Error Summary =====\n   ************* The following recurring error messages occurred.\n   *************\n   *************  ** Warning ** GetSpecificHeatGlycol: Temperature out of range (too low) for fluid [PROPYLENEGLYCOL_50] specific heat **\n   *************  **   ~~~   **   This error occurred 1298 total times;\n   *************  **   ~~~   **   during Warmup 0 times;\n   *************  **   ~~~   **   during Sizing 0 times.\n   *************  **   ~~~   **   Max=-15.026385 {C}  Min=-19.393052 {C}\n   *************\n   *************  ** Warning ** GetDensityGlycol: Temperature out of range (too low) for fluid [PROPYLENEGLYCOL_50] density **\n   *************  **   ~~~   **   This error occurred 238 total times;\n   *************  **   ~~~   **   during Warmup 0 times;\n   *************  **   ~~~   **   during Sizing 0 times.\n   *************  **   ~~~   **   Max=-15.026385 {C}  Min=-19.393052 {C}\n   *************\n   *************  ** Warning ** GetSpecificHeatGlycol: Temperature out of range (too high) for fluid [PROPYLENEGLYCOL_50] specific heat **\n   *************  **   ~~~   **   This error occurred 125375 total times;\n   *************  **   ~~~   **   during Warmup 0 times;\n   *************  **   ~~~   **   during Sizing 0 times.\n   *************  **   ~~~   **   Max=208.424849 {C}  Min=125.00138 {C}\n   *************\n   *************  ** Warning ** Plant loop exceeding upper temperature limit, PlantLoop=\"SOLAR HOT WATER LOOP\"\n   *************  **   ~~~   **   This error occurred 4723 total times;\n   *************  **   ~~~   **   during Warmup 0 times;\n   *************  **   ~~~   **   during Sizing 0 times.\n   *************  **   ~~~   **   Max=198.466629\n   *************\n   *************  ** Warning ** GetDensityGlycol: Temperature out of range (too high) for fluid [PROPYLENEGLYCOL_50] density **\n   *************  **   ~~~   **   This error occurred 43099 total times;\n   *************  **   ~~~   **   during Warmup 0 times;\n   *************  **   ~~~   **   during Sizing 0 times.\n   *************  **   ~~~   **   Max=198.064763 {C}  Min=125.017209 {C}\n   *************\n   *************  ** Warning ** CalcDoe2DXCoil: Coil:Cooling:DX:SingleSpeed=\"RESIDENTIAL ASHP COOLING COIL\" - Air volume flow rate per watt of rated total cooling capacity is out of range error continues...\n   *************  **   ~~~   **   This error occurred 235062 total times;\n   *************  **   ~~~   **   during Warmup 0 times;\n   *************  **   ~~~   **   during Sizing 0 times.\n   *************  **   ~~~   **   Max=7.013696E-005  Min=6.713185E-005\n   *************\n   *************  ** Warning ** AirLoopHVAC:UnitarySystem \"RESIDENTIAL ASHP UNITARY SYSTEM\" - sensible part-load ratio out of range error continues. Sensible load statistics:\n   *************  **   ~~~   **   This error occurred 1 total times;\n   *************  **   ~~~   **   during Warmup 0 times;\n   *************  **   ~~~   **   during Sizing 0 times.\n   *************  **   ~~~   **   Max=6274.152177  Min=6274.152177\n   *************\n   *************\n   ************* ===== Final Error Summary =====\n   ************* The following error categories occurred.  Consider correcting or noting.\n   ************* Nominally Unused Constructions\n   ************* ..The nominally unused constructions warning is provided to alert you to potential conditions that can cause\n   ************* ..extra time during simulation. Each construction is calculated by the algorithm indicated in the HeatBalanceAlgorithm\n   ************* ..object. You may remove the constructions indicated (when you use the DisplayExtraWarnings option).\n   *************\n   ************* EnergyPlus Warmup Error Summary. During Warmup: 0 Warning; 0 Severe Errors.\n   ************* EnergyPlus Sizing Error Summary. During Sizing: 0 Warning; 0 Severe Errors.\n   ************* EnergyPlus Completed Successfully-- 409934 Warning; 0 Severe Errors; Elapsed Time=00hr 02min 15.32sec\n",
   "hash" : "D703A815",
   "measure_paths" : [ "../measures" ],
   "seed_file" : "../seeds/EmptySeedModel.osm",
   "started_at" : "20180330T194310Z",
   "steps" : [
      {
         "arguments" : {
            "dst_end_date" : "October 26",
            "dst_start_date" : "April 7",
            "weather_directory" : "./resources",
            "weather_file_name" : "USA_CO_Denver_Intl_AP_725650_TMY3.epw"
         },
         "description" : "Sets the EPW weather file (EPW), supplemental data specific to the location, and daylight saving time start/end dates. See https://github.com/NREL/OpenStudio-BEopt#workflows for supported workflows using this measure.",
         "measure_dir_name" : "ResidentialLocation",
         "modeler_description" : "Sets the weather file, Building America climate zone, site information (e.g., latitude, longitude, elevation, timezone), design day information (from the DDY file), the mains water temperature using the correlation method, and the daylight saving time start/end dates.",
         "name" : "Set Residential Location",
         "result" : {
            "completed_at" : "20180330T194313Z",
            "measure_class_name" : "SetResidentialEPWFile",
            "measure_display_name" : "Set Residential Location",
            "measure_name" : "set_residential_epw_file",
            "measure_taxonomy" : "Whole Building.Space Types",
            "measure_type" : "ModelMeasure",
            "measure_uid" : "16ac2c0c-6177-4bf2-91a5-1b6e8de4e85b",
            "measure_version_id" : "fcb1e6a8-b887-42a5-bc79-8087d8eba552",
            "measure_version_modified" : "20180312T151145Z",
            "measure_xml_checksum" : "D8922A73",
            "started_at" : "20180330T194312Z",
            "stderr" : "",
            "stdout" : "[openstudio.model.YearDescription] <1> 'UseWeatherFile' is not yet a supported option for YearDescription\n[openstudio.model.YearDescription] <1> 'UseWeatherFile' is not yet a supported option for YearDescription\n",
            "step_errors" : [],
            "step_files" : [],
            "step_final_condition" : "The weather file path is 'C:/OpenStudio-Beopt/measures/ResidentialLocation/resources/USA_CO_Denver_Intl_AP_725650_TMY3.epw'.",
            "step_info" : [
               "Setting weather file.",
               "Setting site data.",
               "Setting Building America climate zone to Cold.",
               "Setting mains water temperature profile with an average temperature of 57.6 F.",
               "Set daylight saving time from 2009-Apr-07 to 2009-Oct-26."
            ],
            "step_result" : "Success",
            "step_values" : [
               {
                  "name" : "weather_directory",
                  "value" : "./resources"
               },
               {
                  "name" : "weather_file_name",
                  "value" : "USA_CO_Denver_Intl_AP_725650_TMY3.epw"
               },
               {
                  "name" : "dst_start_date",
                  "value" : "April 7"
               },
               {
                  "name" : "dst_end_date",
                  "value" : "October 26"
               }
            ],
            "step_warnings" : []
         }
      },
      {
         "arguments" : {
            "aspect_ratio" : "2",
            "attic_type" : "unfinished attic",
            "foundation_height" : "3",
            "foundation_type" : "slab",
            "garage_depth" : "20",
            "garage_pos" : "Right",
            "garage_protrusion" : "0",
            "garage_width" : "0",
            "num_floors" : "2",
            "roof_pitch" : "6:12",
            "roof_type" : "gable",
            "total_ffa" : "2000",
            "wall_height" : "8"
         },
         "description" : "Sets the basic geometry for the building. Building is limited to one foundation type. Garage is tucked within the building, on the front left or front right corners of the building. See https://github.com/NREL/OpenStudio-BEopt#workflows for supported workflows using this measure.",
         "measure_dir_name" : "ResidentialGeometrySingleFamilyDetached",
         "modeler_description" : "Gathers living space area, wall height per floor, number of floors, aspect ratio, garage width and depth, garage position, foundation type and wall height, attic and roof type, and roof pitch. Constructs building by calculating footprint and performing a series of affine transformations into living, foundation, and attic spaces.",
         "name" : "Create Residential Single-Family Detached Geometry",
         "result" : {
            "completed_at" : "20180330T194313Z",
            "measure_class_name" : "CreateResidentialSingleFamilyDetachedGeometry",
            "measure_display_name" : "Create Residential Single-Family Detached Geometry",
            "measure_name" : "create_residential_single_family_detached_geometry",
            "measure_taxonomy" : "Envelope.Form",
            "measure_type" : "ModelMeasure",
            "measure_uid" : "a1248ef4-c1ef-46ed-a9ea-4d8fbf719b6f",
            "measure_version_id" : "67a30244-97ef-4a4b-8a1d-4524c8bb2f79",
            "measure_version_modified" : "20180312T151133Z",
            "measure_xml_checksum" : "2AF3A68E",
            "started_at" : "20180330T194313Z",
            "stderr" : "",
            "stdout" : "",
            "step_errors" : [],
            "step_files" : [],
            "step_final_condition" : "The building finished with 3 spaces.",
            "step_info" : [
               "Set living space.",
               "Set living space|story 2.",
               "Set unfinished attic space."
            ],
            "step_initial_condition" : "The building started with 0 spaces.",
            "step_result" : "Success",
            "step_values" : [
               {
                  "name" : "total_ffa",
                  "value" : 2000
               },
               {
                  "name" : "wall_height",
                  "value" : 8
               },
               {
                  "name" : "num_floors",
                  "value" : 2
               },
               {
                  "name" : "aspect_ratio",
                  "value" : 2
               },
               {
                  "name" : "garage_width",
                  "value" : 0
               },
               {
                  "name" : "garage_depth",
                  "value" : 20
               },
               {
                  "name" : "garage_protrusion",
                  "value" : 0
               },
               {
                  "name" : "garage_pos",
                  "value" : "Right"
               },
               {
                  "name" : "foundation_type",
                  "value" : "slab"
               },
               {
                  "name" : "foundation_height",
                  "value" : 3
               },
               {
                  "name" : "attic_type",
                  "value" : "unfinished attic"
               },
               {
                  "name" : "roof_type",
                  "value" : "gable"
               },
               {
                  "name" : "roof_pitch",
                  "value" : "6:12"
               }
            ],
            "step_warnings" : []
         }
      },
      {
         "arguments" : {
            "num_bathrooms" : "2",
            "num_bedrooms" : "3"
         },
         "description" : "Sets the number of bedrooms and bathrooms in the building. For multifamily buildings, the bedrooms/bathrooms can be set for all units of the building. See https://github.com/NREL/OpenStudio-BEopt#workflows for supported workflows using this measure.",
         "measure_dir_name" : "ResidentialGeometryNumBedsAndBaths",
         "modeler_description" : "Sets (or replaces) dummy ElectricEquipment objects that store the number of bedrooms and bathrooms associated with the model.",
         "name" : "Set Residential Number of Beds and Baths",
         "result" : {
            "completed_at" : "20180330T194313Z",
            "measure_class_name" : "AddResidentialBedroomsAndBathrooms",
            "measure_display_name" : "Set Residential Number of Beds and Baths",
            "measure_name" : "add_residential_bedrooms_and_bathrooms",
            "measure_taxonomy" : "Envelope.Form",
            "measure_type" : "ModelMeasure",
            "measure_uid" : "fbcd41af-eace-4695-a5a4-b017acfe1f99",
            "measure_version_id" : "6ccca579-ec9f-48a8-bb09-1c66240c386c",
            "measure_version_modified" : "20180312T151133Z",
            "measure_xml_checksum" : "2AF3A68E",
            "started_at" : "20180330T194313Z",
            "stderr" : "",
            "stdout" : "",
            "step_errors" : [],
            "step_files" : [],
            "step_final_condition" : "The building has been assigned 3 bedroom(s) and 2.0 bathroom(s).",
            "step_info" : [],
            "step_result" : "Success",
            "step_values" : [
               {
                  "name" : "num_bedrooms",
                  "value" : "3"
               },
               {
                  "name" : "num_bathrooms",
                  "value" : "2"
               }
            ],
            "step_warnings" : []
         }
      },
      {
         "arguments" : {
            "lat_frac" : "0.427",
            "monthly_sch" : "1.0, 1.0, 1.0, 1.0, 1.0, 1.0, 1.0, 1.0, 1.0, 1.0, 1.0, 1.0",
            "num_occ" : "auto",
            "occ_gain" : "384",
            "sens_frac" : "0.573",
            "weekday_sch" : "1.00, 1.00, 1.00, 1.00, 1.00, 1.00, 1.00, 0.88, 0.41, 0.24, 0.24, 0.24, 0.24, 0.24, 0.24, 0.24, 0.29, 0.55, 0.90, 0.90, 0.90, 1.00, 1.00, 1.00",
            "weekend_sch" : "1.00, 1.00, 1.00, 1.00, 1.00, 1.00, 1.00, 0.88, 0.41, 0.24, 0.24, 0.24, 0.24, 0.24, 0.24, 0.24, 0.29, 0.55, 0.90, 0.90, 0.90, 1.00, 1.00, 1.00"
         },
         "description" : "Sets the number of occupants in the building. For multifamily buildings, the people can be set for all units of the building. See https://github.com/NREL/OpenStudio-BEopt#workflows for supported workflows using this measure.",
         "measure_dir_name" : "ResidentialGeometryNumOccupants",
         "modeler_description" : "Sets (or replaces) the People object for each finished space in the model.",
         "name" : "Set Residential Number of Occupants",
         "result" : {
            "completed_at" : "20180330T194313Z",
            "measure_class_name" : "AddResidentialOccupants",
            "measure_display_name" : "Set Residential Number of Occupants",
            "measure_name" : "add_residential_occupants",
            "measure_taxonomy" : "People.Characteristics",
            "measure_type" : "ModelMeasure",
            "measure_uid" : "f2397929-23f4-46a9-8e46-23aad913d09f",
            "measure_version_id" : "be02f76c-996e-4310-b008-ea50e5c9a846",
            "measure_version_modified" : "20180330T194239Z",
            "measure_xml_checksum" : "57232789",
            "started_at" : "20180330T194313Z",
            "stderr" : "",
            "stdout" : "[openstudio.model.YearDescription] <1> 'UseWeatherFile' is not yet a supported option for YearDescription\n",
            "step_errors" : [],
            "step_files" : [],
            "step_final_condition" : "The building has been assigned 2.64 occupant(s).",
            "step_info" : [
               "unit 1 has been assigned 1.32 occupant(s) for space 'living space|story 2'.",
               "unit 1 has been assigned 1.32 occupant(s) for space 'living space'."
            ],
            "step_result" : "Success",
            "step_values" : [
               {
                  "name" : "num_occ",
                  "value" : "auto"
               },
               {
                  "name" : "occ_gain",
                  "value" : 384
               },
               {
                  "name" : "sens_frac",
                  "value" : 0.57299999999999995
               },
               {
                  "name" : "lat_frac",
                  "value" : 0.42699999999999999
               },
               {
                  "name" : "weekday_sch",
                  "value" : "1.00, 1.00, 1.00, 1.00, 1.00, 1.00, 1.00, 0.88, 0.41, 0.24, 0.24, 0.24, 0.24, 0.24, 0.24, 0.24, 0.29, 0.55, 0.90, 0.90, 0.90, 1.00, 1.00, 1.00"
               },
               {
                  "name" : "weekend_sch",
                  "value" : "1.00, 1.00, 1.00, 1.00, 1.00, 1.00, 1.00, 0.88, 0.41, 0.24, 0.24, 0.24, 0.24, 0.24, 0.24, 0.24, 0.29, 0.55, 0.90, 0.90, 0.90, 1.00, 1.00, 1.00"
               },
               {
                  "name" : "monthly_sch",
                  "value" : "1.0, 1.0, 1.0, 1.0, 1.0, 1.0, 1.0, 1.0, 1.0, 1.0, 1.0, 1.0"
               }
            ],
            "step_warnings" : []
         }
      },
      {
         "arguments" : {
            "orientation" : "180"
         },
         "description" : "Sets the fixed orientation of the building. See https://github.com/NREL/OpenStudio-BEopt#workflows for supported workflows using this measure.",
         "measure_dir_name" : "ResidentialGeometryOrientation",
         "modeler_description" : "Modifies the North axis of the building.",
         "name" : "Set Residential Orientation",
         "result" : {
            "completed_at" : "20180330T194313Z",
            "measure_class_name" : "CreateResidentialOrientation",
            "measure_display_name" : "Set Residential Orientation",
            "measure_name" : "create_residential_orientation",
            "measure_taxonomy" : "Envelope.Form",
            "measure_type" : "ModelMeasure",
            "measure_uid" : "4bf5a7c5-bce4-404a-bc7b-72dc02b379f8",
            "measure_version_id" : "40f14048-34de-4de5-bdb4-a4f5c2f6f227",
            "measure_version_modified" : "20180312T151133Z",
            "measure_xml_checksum" : "2AF3A68E",
            "started_at" : "20180330T194313Z",
            "stderr" : "",
            "stdout" : "",
            "step_errors" : [],
            "step_files" : [],
            "step_final_condition" : "The building's final orientation was 180.0 azimuth.",
            "step_info" : [ "The orientation of the building has changed." ],
            "step_initial_condition" : "The building's initial orientation was 0.0 azimuth.",
            "step_result" : "Success",
            "step_values" : [
               {
                  "name" : "orientation",
                  "value" : 180
               }
            ],
            "step_warnings" : []
         }
      },
      {
         "arguments" : {
            "eaves_depth" : "2",
            "roof_structure" : "truss, cantilever"
         },
         "description" : "Sets the eaves for the building. See https://github.com/NREL/OpenStudio-BEopt#workflows for supported workflows using this measure.",
         "measure_dir_name" : "ResidentialGeometryEaves",
         "modeler_description" : "Performs a series of affine transformations on the roof decks into shading surfaces.",
         "name" : "Set Residential Eaves",
         "result" : {
            "completed_at" : "20180330T194313Z",
            "measure_class_name" : "CreateResidentialEaves",
            "measure_display_name" : "Set Residential Eaves",
            "measure_name" : "create_residential_eaves",
            "measure_taxonomy" : "Envelope.Form",
            "measure_type" : "ModelMeasure",
            "measure_uid" : "13c930a5-6afa-4f3a-869a-48514ec7a224",
            "measure_version_id" : "a58687e3-d36f-438a-8a76-a81a59fe6e5d",
            "measure_version_modified" : "20180312T151133Z",
            "measure_xml_checksum" : "2AF3A68E",
            "started_at" : "20180330T194313Z",
            "stderr" : "",
            "stdout" : "",
            "step_errors" : [],
            "step_files" : [],
            "step_info" : [
               "Added Surface 14 - residential eaves 2",
               "Added Surface 15 - residential eaves",
               "Added Surface 15 - residential eaves 1",
               "Added Surface 15 - residential eaves 2",
               "Added Surface 14 - residential eaves",
               "Added Surface 14 - residential eaves 1"
            ],
            "step_result" : "Success",
            "step_values" : [
               {
                  "name" : "roof_structure",
                  "value" : "truss, cantilever"
               },
               {
                  "name" : "eaves_depth",
                  "value" : 2
               }
            ],
            "step_warnings" : []
         }
      },
      {
         "arguments" : {
            "door_area" : "20"
         },
         "description" : "Sets the opaque door area for the building. Doors with glazing should be set as window area. For multifamily buildings, door area can be set for all units of the building. See https://github.com/NREL/OpenStudio-BEopt#workflows for supported workflows using this measure.",
         "measure_dir_name" : "ResidentialGeometryDoorArea",
         "modeler_description" : "Sets the opaque door area for the lowest above-grade front surface attached to living space. Any existing doors are removed. For multifamily buildings, doors are placed on corridor walls if available.",
         "name" : "Set Residential Door Area",
         "result" : {
            "completed_at" : "20180330T194313Z",
            "measure_class_name" : "CreateResidentialDoorArea",
            "measure_display_name" : "Set Residential Door Area",
            "measure_name" : "create_residential_door_area",
            "measure_taxonomy" : "Envelope.Fenestration",
            "measure_type" : "ModelMeasure",
            "measure_uid" : "901a04ee-99d4-42b3-91e1-b5b97970f441",
            "measure_version_id" : "94b20529-0a48-46ea-92d6-b4b23823ef5f",
            "measure_version_modified" : "20180312T151132Z",
            "measure_xml_checksum" : "9C8A26EB",
            "started_at" : "20180330T194313Z",
            "stderr" : "",
            "stdout" : "",
            "step_errors" : [],
            "step_files" : [],
            "step_final_condition" : "The building has been assigned 20.0 ft^2 total door area.",
            "step_info" : [ "For unit 1 added 20.0 ft^2 door." ],
            "step_result" : "Success",
            "step_values" : [
               {
                  "name" : "door_area",
                  "value" : 20
               }
            ],
            "step_warnings" : []
         }
      },
      {
         "arguments" : {
            "aspect_ratio" : "1.333",
            "back_area" : "0",
            "back_wwr" : "0.18",
            "front_area" : "0",
            "front_wwr" : "0.18",
            "left_area" : "0",
            "left_wwr" : "0.18",
            "right_area" : "0",
            "right_wwr" : "0.18"
         },
         "description" : "Sets the window area for the building. Doors with glazing should be set as window area. See https://github.com/NREL/OpenStudio-BEopt#workflows for supported workflows using this measure.",
         "measure_dir_name" : "ResidentialGeometryWindowArea",
         "modeler_description" : "Automatically creates and positions standard residential windows based on the specified window area on each building facade. Windows are only added to surfaces between finished space and outside. Any existing windows are removed.",
         "name" : "Set Residential Window Area",
         "result" : {
            "completed_at" : "20180330T194313Z",
            "measure_class_name" : "SetResidentialWindowArea",
            "measure_display_name" : "Set Residential Window Area",
            "measure_name" : "set_residential_window_area",
            "measure_taxonomy" : "Envelope.Fenestration",
            "measure_type" : "ModelMeasure",
            "measure_uid" : "d05f5b32-1ad6-4c3d-964a-0dbd49a7fde8",
            "measure_version_id" : "c7e32ebb-b8a6-45a1-9c35-20fa8487a43e",
            "measure_version_modified" : "20180312T151133Z",
            "measure_xml_checksum" : "9014E219",
            "started_at" : "20180330T194313Z",
            "stderr" : "",
            "stdout" : "",
            "step_errors" : [],
            "step_files" : [],
            "step_final_condition" : "The building has been assigned 382.0 ft^2 total window area.",
            "step_info" : [
               "Added 5 window(s), totaling 59.7 ft^2, to Surface 5.",
               "Added 6 window(s), totaling 64.7 ft^2, to Surface 11.",
               "Added 6 window(s), totaling 64.4 ft^2, to Surface 3.",
               "Added 6 window(s), totaling 64.4 ft^2, to Surface 9.",
               "Added 3 window(s), totaling 32.2 ft^2, to Surface 2.",
               "Added 3 window(s), totaling 32.2 ft^2, to Surface 8.",
               "Added 3 window(s), totaling 32.2 ft^2, to Surface 4.",
               "Added 3 window(s), totaling 32.2 ft^2, to Surface 10."
            ],
            "step_result" : "Success",
            "step_values" : [
               {
                  "name" : "front_wwr",
                  "value" : 0.17999999999999999
               },
               {
                  "name" : "back_wwr",
                  "value" : 0.17999999999999999
               },
               {
                  "name" : "left_wwr",
                  "value" : 0.17999999999999999
               },
               {
                  "name" : "right_wwr",
                  "value" : 0.17999999999999999
               },
               {
                  "name" : "front_area",
                  "value" : 0
               },
               {
                  "name" : "back_area",
                  "value" : 0
               },
               {
                  "name" : "left_area",
                  "value" : 0
               },
               {
                  "name" : "right_area",
                  "value" : 0
               },
               {
                  "name" : "aspect_ratio",
                  "value" : 1.333
               }
            ],
            "step_warnings" : []
         }
      },
      {
         "arguments" : {
            "back_facade" : "true",
            "depth" : "2",
            "front_facade" : "true",
            "left_facade" : "true",
            "offset" : "0.5",
            "right_facade" : "true",
            "sub_surface" : "auto"
         },
         "description" : "Sets presence/dimensions of overhangs for windows on the specified building facade(s). See https://github.com/NREL/OpenStudio-BEopt#workflows for supported workflows using this measure.",
         "measure_dir_name" : "ResidentialGeometryOverhangs",
         "modeler_description" : "Creates overhang shading surfaces for windows on the specified building facade(s) and specified depth/offset. Any existing overhang shading surfaces are removed.",
         "name" : "Set Residential Overhangs",
         "result" : {
            "completed_at" : "20180330T194313Z",
            "measure_class_name" : "CreateResidentialOverhangs",
            "measure_display_name" : "Set Residential Overhangs",
            "measure_name" : "create_residential_overhangs",
            "measure_taxonomy" : "Envelope.Fenestration",
            "measure_type" : "ModelMeasure",
            "measure_uid" : "0821dae4-c0b6-4295-a7a5-ccaf9407dc77",
            "measure_version_id" : "3df2df5b-9a76-4707-8c05-0b97145fc0b4",
            "measure_version_modified" : "20180312T151133Z",
            "measure_xml_checksum" : "9C8A26EB",
            "started_at" : "20180330T194313Z",
            "stderr" : "",
            "stdout" : "",
            "step_errors" : [],
            "step_files" : [],
            "step_info" : [
               "Surface 11 - Window 2 - Overhang added.",
               "Surface 5 - Window 1 - Overhang added.",
               "Surface 5 - Window 2 - Overhang added.",
               "Surface 3 - Window 3 - Overhang added.",
               "Surface 5 - Window 5 - Overhang added.",
               "Surface 11 - Window 3 - Overhang added.",
               "Surface 5 - Window 3 - Overhang added.",
               "Surface 11 - Window 1 - Overhang added.",
               "Surface 5 - Window 4 - Overhang added.",
               "Surface 11 - Window 4 - Overhang added.",
               "Surface 10 - Window 2 - Overhang added.",
               "Surface 11 - Window 5 - Overhang added.",
               "Surface 11 - Window 6 - Overhang added.",
               "Surface 3 - Window 1 - Overhang added.",
               "Surface 8 - Window 2 - Overhang added.",
               "Surface 3 - Window 2 - Overhang added.",
               "Surface 4 - Window 1 - Overhang added.",
               "Surface 3 - Window 4 - Overhang added.",
               "Surface 3 - Window 5 - Overhang added.",
               "Surface 3 - Window 6 - Overhang added.",
               "Surface 9 - Window 1 - Overhang added.",
               "Surface 9 - Window 2 - Overhang added.",
               "Surface 9 - Window 3 - Overhang added.",
               "Surface 9 - Window 4 - Overhang added.",
               "Surface 9 - Window 5 - Overhang added.",
               "Surface 9 - Window 6 - Overhang added.",
               "Surface 2 - Window 1 - Overhang added.",
               "Surface 2 - Window 2 - Overhang added.",
               "Surface 2 - Window 3 - Overhang added.",
               "Surface 8 - Window 1 - Overhang added.",
               "Surface 8 - Window 3 - Overhang added.",
               "Surface 4 - Window 2 - Overhang added.",
               "Surface 4 - Window 3 - Overhang added.",
               "Surface 10 - Window 1 - Overhang added.",
               "Surface 10 - Window 3 - Overhang added."
            ],
            "step_result" : "Success",
            "step_values" : [
               {
                  "name" : "sub_surface",
                  "value" : "auto"
               },
               {
                  "name" : "depth",
                  "value" : 2
               },
               {
                  "name" : "offset",
                  "value" : 0.5
               },
               {
                  "name" : "front_facade",
                  "value" : true
               },
               {
                  "name" : "back_facade",
                  "value" : true
               },
               {
                  "name" : "left_facade",
                  "value" : true
               },
               {
                  "name" : "right_facade",
                  "value" : true
               }
            ],
            "step_warnings" : []
         }
      },
      {
         "arguments" : {
            "back_offset" : "0",
            "front_offset" : "0",
            "left_offset" : "10",
            "right_offset" : "10"
         },
         "description" : "Sets the neighbors (front, back, left, and/or right) of the building for shading purposes. Neighboring buildings will have the same geometry as the model building. See https://github.com/NREL/OpenStudio-BEopt#workflows for supported workflows using this measure.",
         "measure_dir_name" : "ResidentialGeometryNeighbors",
         "modeler_description" : "Creates shading surfaces by shifting the building's exterior surfaces in the specified directions (front, back, left, and/or right).",
         "name" : "Set Residential Neighbors",
         "result" : {
            "completed_at" : "20180330T194313Z",
            "measure_class_name" : "CreateResidentialNeighbors",
            "measure_display_name" : "Set Residential Neighbors",
            "measure_name" : "create_residential_neighbors",
            "measure_taxonomy" : "Envelope.Form",
            "measure_type" : "ModelMeasure",
            "measure_uid" : "11051b4a-4f5b-43b5-8c78-6303e084dbd9",
            "measure_version_id" : "ad934c30-b68a-4d26-928a-fd9a1d32838a",
            "measure_version_modified" : "20180312T151133Z",
            "measure_xml_checksum" : "2AF3A68E",
            "started_at" : "20180330T194313Z",
            "stderr" : "",
            "stdout" : "",
            "step_errors" : [],
            "step_files" : [],
            "step_info" : [
               "Created 'residential neighbors left' from 'Surface 5'",
               "Created 'residential neighbors left 1' from 'Surface 19'",
               "Created 'residential neighbors left 2' from 'Surface 18'",
               "Created 'residential neighbors left 3' from 'Surface 2'",
               "Created 'residential neighbors left 4' from 'Surface 3'",
               "Created 'residential neighbors left 5' from 'Surface 4'",
               "Created 'residential neighbors left 6' from 'Surface 14'",
               "Created 'residential neighbors left 7' from 'Surface 15'",
               "Created 'residential neighbors left 8' from 'Surface 16'",
               "Created 'residential neighbors left 9' from 'Surface 17'",
               "Created 'residential neighbors left 10' from 'Surface 8'",
               "Created 'residential neighbors left 11' from 'Surface 9'",
               "Created 'residential neighbors left 12' from 'Surface 10'",
               "Created 'residential neighbors left 13' from 'Surface 11'",
               "Created 'residential neighbors left 14' from 'Surface 15 - residential eaves 2'",
               "Created 'residential neighbors left 15' from 'Surface 14 - residential eaves'",
               "Created 'residential neighbors left 16' from 'Surface 15 - residential eaves 1'",
               "Created 'residential neighbors left 17' from 'Surface 14 - residential eaves 1'",
               "Created 'residential neighbors left 18' from 'Surface 14 - residential eaves 2'",
               "Created 'residential neighbors left 19' from 'Surface 15 - residential eaves'",
               "Created 'residential neighbors right' from 'Surface 5'",
               "Created 'residential neighbors right 1' from 'Surface 19'",
               "Created 'residential neighbors right 2' from 'Surface 18'",
               "Created 'residential neighbors right 3' from 'Surface 2'",
               "Created 'residential neighbors right 4' from 'Surface 3'",
               "Created 'residential neighbors right 5' from 'Surface 4'",
               "Created 'residential neighbors right 6' from 'Surface 14'",
               "Created 'residential neighbors right 7' from 'Surface 15'",
               "Created 'residential neighbors right 8' from 'Surface 16'",
               "Created 'residential neighbors right 9' from 'Surface 17'",
               "Created 'residential neighbors right 10' from 'Surface 8'",
               "Created 'residential neighbors right 11' from 'Surface 9'",
               "Created 'residential neighbors right 12' from 'Surface 10'",
               "Created 'residential neighbors right 13' from 'Surface 11'",
               "Created 'residential neighbors right 14' from 'Surface 15 - residential eaves 2'",
               "Created 'residential neighbors right 15' from 'Surface 14 - residential eaves'",
               "Created 'residential neighbors right 16' from 'Surface 15 - residential eaves 1'",
               "Created 'residential neighbors right 17' from 'Surface 14 - residential eaves 1'",
               "Created 'residential neighbors right 18' from 'Surface 14 - residential eaves 2'",
               "Created 'residential neighbors right 19' from 'Surface 15 - residential eaves'"
            ],
            "step_result" : "Success",
            "step_values" : [
               {
                  "name" : "left_offset",
                  "value" : 10
               },
               {
                  "name" : "right_offset",
                  "value" : 10
               },
               {
                  "name" : "back_offset",
                  "value" : 0
               },
               {
                  "name" : "front_offset",
                  "value" : 0
               }
            ],
            "step_warnings" : []
         }
      },
      {
         "arguments" : {
            "surface" : "auto"
         },
         "description" : "This measure assigns an uninsulated constructions to 1) exterior surfaces adjacent to unfinished space, 2) surfaces between two unfinished (or two finished) spaces, or 3) adiabatic surfaces.",
         "measure_dir_name" : "ResidentialConstructionsUninsulatedSurfaces",
         "modeler_description" : "Calculates and assigns material layer properties of uninsulated constructions for surfaces that are not typically insulated.",
         "name" : "Set Residential Uninsulated Surfaces",
         "result" : {
            "completed_at" : "20180330T194313Z",
            "measure_class_name" : "ProcessConstructionsUninsulatedSurfaces",
            "measure_display_name" : "Set Residential Uninsulated Surfaces",
            "measure_name" : "process_constructions_uninsulated_surfaces",
            "measure_taxonomy" : "Envelope.Opaque",
            "measure_type" : "ModelMeasure",
            "measure_uid" : "ffe06b80-3296-436e-98b2-fe79b4c936de",
            "measure_version_id" : "cbef9c07-e9a2-420e-946f-fe15553a15a7",
            "measure_version_modified" : "20180312T151131Z",
            "measure_xml_checksum" : "1E963D9C",
            "started_at" : "20180330T194313Z",
            "stderr" : "",
            "stdout" : "",
            "step_errors" : [],
            "step_files" : [],
            "step_info" : [
               "Material 'ExtStudAndAirWall' was created.",
               "Material 'ResExtWallSheathing' was created.",
               "Construction 'ExtUninsUnfinWall' was created with 2 materials (ResExtWallSheathing, ExtStudAndAirWall).",
               "Surface 'Surface 16' has been assigned construction 'ExtUninsUnfinWall'.",
               "Surface 'Surface 17' has been assigned construction 'ExtUninsUnfinWall'.",
               "Material 'FinStudAndAirFloor' was created.",
               "Construction 'FinUninsFinFloor' was created with 1 material (FinStudAndAirFloor).",
               "Surface 'Surface 7' has been assigned construction 'FinUninsFinFloor'.",
               "Surface 'Surface 6' has been assigned construction 'FinUninsFinFloor'."
            ],
            "step_result" : "Success",
            "step_values" : [
               {
                  "name" : "surface",
                  "value" : "auto"
               }
            ],
            "step_warnings" : []
         }
      },
      {
         "arguments" : {
            "ceil_ff" : "0.07",
            "ceil_grade" : "I",
            "ceil_ins_thick_in" : "8.55",
            "ceil_joist_height" : "3.5",
            "ceil_r" : "30",
            "roof_cavity_grade" : "I",
            "roof_cavity_ins_thick_in" : "0",
            "roof_cavity_r" : "0",
            "roof_ff" : "0.07",
            "roof_fram_thick_in" : "7.25",
            "surface" : "auto"
         },
         "description" : "This measure assigns constructions to unfinished attic floors and ceilings. See https://github.com/NREL/OpenStudio-BEopt#workflows for supported workflows using this measure.",
         "measure_dir_name" : "ResidentialConstructionsCeilingsRoofsUnfinishedAttic",
         "modeler_description" : "Calculates and assigns material layer properties of constructions for 1) floors between unfinished space under a roof and finished space and 2) roofs of unfinished space.",
         "name" : "Set Residential Ceilings/Roofs - Unfinished Attic Constructions",
         "result" : {
            "completed_at" : "20180330T194314Z",
            "measure_class_name" : "ProcessConstructionsCeilingsRoofsUnfinishedAttic",
            "measure_display_name" : "Set Residential Ceilings/Roofs - Unfinished Attic Constructions",
            "measure_name" : "process_constructions_ceilings_roofs_unfinished_attic",
            "measure_taxonomy" : "Envelope.Opaque",
            "measure_type" : "ModelMeasure",
            "measure_uid" : "235ba3ce-dd83-4287-aa0e-435dc1cbf1a7",
            "measure_version_id" : "43605e61-a52b-4a89-821b-dbd10c1b00f5",
            "measure_version_modified" : "20180312T151130Z",
            "measure_xml_checksum" : "1E963D9C",
            "started_at" : "20180330T194314Z",
            "stderr" : "",
            "stdout" : "",
            "step_errors" : [],
            "step_files" : [],
            "step_info" : [
               "Material 'UAAdditionalCeilingIns' was created.",
               "Material 'UATrussandIns' was created.",
               "Construction 'FinInsUnfinUAFloor' was created with 2 materials (UATrussandIns, UAAdditionalCeilingIns).",
               "Surface 'Surface 13' has been assigned construction 'FinInsUnfinUAFloor'.",
               "Construction 'RevFinInsUnfinUAFloor' was created with 2 materials (UAAdditionalCeilingIns, UATrussandIns).",
               "Surface 'Surface 12' has been assigned construction 'RevFinInsUnfinUAFloor'.",
               "Material 'UARoofIns' was created.",
               "Construction 'UnfinInsExtRoof' was created with 1 material (UARoofIns).",
               "Surface 'Surface 14' has been assigned construction 'UnfinInsExtRoof'.",
               "Surface 'Surface 15' has been assigned construction 'UnfinInsExtRoof'."
            ],
            "step_result" : "Success",
            "step_values" : [
               {
                  "name" : "surface",
                  "value" : "auto"
               },
               {
                  "name" : "ceil_r",
                  "value" : 30
               },
               {
                  "name" : "ceil_grade",
                  "value" : "I"
               },
               {
                  "name" : "ceil_ins_thick_in",
                  "value" : 8.5500000000000007
               },
               {
                  "name" : "ceil_ff",
                  "value" : 0.070000000000000007
               },
               {
                  "name" : "ceil_joist_height",
                  "value" : 3.5
               },
               {
                  "name" : "roof_cavity_r",
                  "value" : 0
               },
               {
                  "name" : "roof_cavity_grade",
                  "value" : "I"
               },
               {
                  "name" : "roof_cavity_ins_thick_in",
                  "value" : 0
               },
               {
                  "name" : "roof_ff",
                  "value" : 0.070000000000000007
               },
               {
                  "name" : "roof_fram_thick_in",
                  "value" : 7.25
               }
            ],
            "step_warnings" : []
         }
      },
      {
         "arguments" : {
            "osb_thick_in" : "0.75",
            "rigid_r" : "0",
            "rigid_thick_in" : "0",
            "surface" : "auto"
         },
         "description" : "This measure assigns roof sheathing to all attic roofs. See https://github.com/NREL/OpenStudio-BEopt#workflows for supported workflows using this measure.",
         "measure_dir_name" : "ResidentialConstructionsCeilingsRoofsSheathing",
         "modeler_description" : "Assigns material layer properties for all attic roofs.",
         "name" : "Set Residential Ceilings/Roofs - Roof Sheathing",
         "result" : {
            "completed_at" : "20180330T194314Z",
            "measure_class_name" : "ProcessConstructionsCeilingsRoofsSheathing",
            "measure_display_name" : "Set Residential Ceilings/Roofs - Roof Sheathing",
            "measure_name" : "process_constructions_ceilings_roofs_sheathing",
            "measure_taxonomy" : "Envelope.Opaque",
            "measure_type" : "ModelMeasure",
            "measure_uid" : "f9125155-4fe6-4dae-b5a6-e1249eb2da3c",
            "measure_version_id" : "59609df1-fe07-48d7-b6db-ace1c67ac317",
            "measure_version_modified" : "20180312T151130Z",
            "measure_xml_checksum" : "A465C8A5",
            "started_at" : "20180330T194314Z",
            "stderr" : "",
            "stdout" : "",
            "step_errors" : [],
            "step_files" : [],
            "step_info" : [
               "Material 'ResRoofSheathing' was created.",
               "Construction 'UnfinInsExtRoof 1' was created with 2 materials (ResRoofSheathing, UARoofIns).",
               "Surface 'Surface 14' has been assigned construction 'UnfinInsExtRoof 1'.",
               "Surface 'Surface 15' has been assigned construction 'UnfinInsExtRoof 1'.",
               "Removed construction 'UnfinInsExtRoof' because it was orphaned."
            ],
            "step_result" : "Success",
            "step_values" : [
               {
                  "name" : "surface",
                  "value" : "auto"
               },
               {
                  "name" : "osb_thick_in",
                  "value" : 0.75
               },
               {
                  "name" : "rigid_r",
                  "value" : 0
               },
               {
                  "name" : "rigid_thick_in",
                  "value" : 0
               }
            ],
            "step_warnings" : []
         }
      },
      {
         "arguments" : {
            "color" : "medium",
            "emissivity" : "0.91",
            "material" : "asphalt shingles",
            "solar_abs" : "0.85",
            "surface" : "auto"
         },
         "description" : "This measure assigns the roofing material to all roof surfaces. See https://github.com/NREL/OpenStudio-BEopt#workflows for supported workflows using this measure.",
         "measure_dir_name" : "ResidentialConstructionsCeilingsRoofsRoofingMaterial",
         "modeler_description" : "Assigns material layer properties for all roofceiling surfaces adjacent to outside.",
         "name" : "Set Residential Ceilings/Roofs - Roofing Material",
         "result" : {
            "completed_at" : "20180330T194314Z",
            "measure_class_name" : "ProcessConstructionsCeilingsRoofsRoofingMaterial",
            "measure_display_name" : "Set Residential Ceilings/Roofs - Roofing Material",
            "measure_name" : "process_constructions_ceilings_roofs_roofing_material",
            "measure_taxonomy" : "Envelope.Opaque",
            "measure_type" : "ModelMeasure",
            "measure_uid" : "3239e82d-5efc-4a17-9223-c7c1cd8c9cf7",
            "measure_version_id" : "9e3f42e3-c20d-44c0-9938-4680c2e30e00",
            "measure_version_modified" : "20180312T151130Z",
            "measure_xml_checksum" : "A465C8A5",
            "started_at" : "20180330T194314Z",
            "stderr" : "",
            "stdout" : "",
            "step_errors" : [],
            "step_files" : [],
            "step_info" : [
               "Material 'ResRoofMaterial' was created.",
               "Construction 'UnfinInsExtRoof 2' was created with 3 materials (ResRoofMaterial, ResRoofSheathing, UARoofIns).",
               "Surface 'Surface 14' has been assigned construction 'UnfinInsExtRoof 2'.",
               "Surface 'Surface 15' has been assigned construction 'UnfinInsExtRoof 2'.",
               "Removed construction 'UnfinInsExtRoof 1' because it was orphaned."
            ],
            "step_result" : "Success",
            "step_values" : [
               {
                  "name" : "surface",
                  "value" : "auto"
               },
               {
                  "name" : "solar_abs",
                  "value" : 0.84999999999999998
               },
               {
                  "name" : "emissivity",
                  "value" : 0.91000000000000003
               },
               {
                  "name" : "material",
                  "value" : "asphalt shingles"
               },
               {
                  "name" : "color",
                  "value" : "medium"
               }
            ],
            "step_warnings" : []
         }
      },
      {
         "arguments" : {
            "has_rb" : "false",
            "surface" : "auto"
         },
         "description" : "This measure assigns the radiant barrier material to all roof surfaces attached to unfinished space. See https://github.com/NREL/OpenStudio-BEopt#workflows for supported workflows using this measure.",
         "measure_dir_name" : "ResidentialConstructionsCeilingsRoofsRadiantBarrier",
         "modeler_description" : "Assigns material layer properties for all roofceiling surfaces adjacent to outside that are not attached to unfinished space.",
         "name" : "Set Residential Ceilings/Roofs - Radiant Barrier",
         "result" : {
            "completed_at" : "20180330T194314Z",
            "measure_class_name" : "ProcessConstructionsCeilingsRoofsRadiantBarrier",
            "measure_display_name" : "Set Residential Ceilings/Roofs - Radiant Barrier",
            "measure_name" : "process_constructions_ceilings_roofs_radiant_barrier",
            "measure_taxonomy" : "Envelope.Opaque",
            "measure_type" : "ModelMeasure",
            "measure_uid" : "fd81853a-75a3-4c57-a5b5-373793430f49",
            "measure_version_id" : "832678bb-f48a-4683-8caf-7d4f55896fd7",
            "measure_version_modified" : "20180312T151130Z",
            "measure_xml_checksum" : "78504A2C",
            "started_at" : "20180330T194314Z",
            "stderr" : "",
            "stdout" : "",
            "step_errors" : [],
            "step_files" : [],
            "step_info" : [],
            "step_result" : "Success",
            "step_values" : [
               {
                  "name" : "surface",
                  "value" : "auto"
               },
               {
                  "name" : "has_rb",
                  "value" : false
               }
            ],
            "step_warnings" : []
         }
      },
      {
         "arguments" : {
            "cond1" : "1.1112",
            "dens1" : "50",
            "specheat1" : "0.2",
            "surface" : "auto",
            "thick_in1" : "0.5"
         },
         "description" : "This measure assigns thermal mass to ceilings adjacent to finished space. See https://github.com/NREL/OpenStudio-BEopt#workflows for supported workflows using this measure.",
         "measure_dir_name" : "ResidentialConstructionsCeilingsRoofsThermalMass",
         "modeler_description" : "Assigns material layer properties for ceilings adjacent to finished space.",
         "name" : "Set Residential Ceilings/Roofs - Ceiling Thermal Mass",
         "result" : {
            "completed_at" : "20180330T194314Z",
            "measure_class_name" : "ProcessConstructionsCeilingsRoofsThermalMass",
            "measure_display_name" : "Set Residential Ceilings/Roofs - Ceiling Thermal Mass",
            "measure_name" : "process_constructions_ceilings_roofs_thermal_mass",
            "measure_taxonomy" : "Envelope.Opaque",
            "measure_type" : "ModelMeasure",
            "measure_uid" : "efe35222-f47d-43e9-b096-6bd18bfe1100",
            "measure_version_id" : "b13d1513-cbea-4236-ab51-6ed8411291f6",
            "measure_version_modified" : "20180312T151130Z",
            "measure_xml_checksum" : "5091078B",
            "started_at" : "20180330T194314Z",
            "stderr" : "",
            "stdout" : "",
            "step_errors" : [],
            "step_files" : [],
            "step_info" : [
               "Material 'ResCeilingMass1' was created.",
               "Construction 'FinUninsFinFloor 1' was created with 2 materials (ResCeilingMass1, FinStudAndAirFloor).",
               "Surface 'Surface 6' has been assigned construction 'FinUninsFinFloor 1'.",
               "Construction 'RevFinUninsFinFloor 1' was created with 2 materials (FinStudAndAirFloor, ResCeilingMass1).",
               "Surface 'Surface 7' has been assigned construction 'RevFinUninsFinFloor 1'.",
               "Construction 'RevFinInsUnfinUAFloor 1' was created with 3 materials (ResCeilingMass1, UAAdditionalCeilingIns, UATrussandIns).",
               "Surface 'Surface 12' has been assigned construction 'RevFinInsUnfinUAFloor 1'.",
[...]
               },
               {
                  "name" : "weekend_sch",
                  "value" : "0.044, 0.023, 0.019, 0.015, 0.016, 0.018, 0.026, 0.033, 0.033, 0.032, 0.033, 0.033, 0.032, 0.032, 0.032, 0.033, 0.045, 0.057, 0.066, 0.076, 0.081, 0.086, 0.075, 0.065"
               },
               {
                  "name" : "monthly_sch",
                  "value" : "1.154, 1.161, 1.013, 1.010, 1.013, 0.888, 0.883, 0.883, 0.888, 0.978, 0.974, 1.154"
               },
               {
                  "name" : "location",
                  "value" : "auto"
               }
            ],
            "step_warnings" : []
         }
      },
      {
         "arguments" : {
            "base_energy" : "30",
            "monthly_sch" : "1.097, 1.097, 0.991, 0.987, 0.991, 0.890, 0.896, 0.896, 0.890, 1.085, 1.085, 1.097",
            "mult" : "1",
            "scale_energy" : "true",
            "weekday_sch" : "0.004, 0.001, 0.001, 0.002, 0.007, 0.012, 0.029, 0.046, 0.044, 0.041, 0.044, 0.046, 0.042, 0.038, 0.049, 0.059, 0.110, 0.161, 0.115, 0.070, 0.044, 0.019, 0.013, 0.007",
            "weekend_sch" : "0.004, 0.001, 0.001, 0.002, 0.007, 0.012, 0.029, 0.046, 0.044, 0.041, 0.044, 0.046, 0.042, 0.038, 0.049, 0.059, 0.110, 0.161, 0.115, 0.070, 0.044, 0.019, 0.013, 0.007"
         },
         "description" : "Adds (or replaces) a residential gas grill with the specified efficiency and schedule. The grill is assumed to be outdoors. For multifamily buildings, the grill is set for all units of the building. See https://github.com/NREL/OpenStudio-BEopt#workflows for supported workflows using this measure.",
         "measure_dir_name" : "ResidentialMiscGasGrill",
         "modeler_description" : "Since there is no Gas Grill object in OpenStudio/EnergyPlus, we look for a GasEquipment object with the name that denotes it is a residential gas grill. If one is found, it is replaced with the specified properties. Otherwise, a new such object is added to the model. Note: This measure requires the number of bedrooms/bathrooms to have already been assigned.",
         "name" : "Set Residential Gas Grill",
         "result" : {
            "completed_at" : "20180330T194323Z",
            "measure_class_name" : "ResidentialGasGrill",
            "measure_display_name" : "Set Residential Gas Grill",
            "measure_name" : "residential_gas_grill",
            "measure_taxonomy" : "Equipment.Gas Equipment",
            "measure_type" : "ModelMeasure",
            "measure_uid" : "5b539cd4-fef6-4600-9254-166877fabddd",
            "measure_version_id" : "210f42bf-b98b-44cc-b10f-3716a5d29b70",
            "measure_version_modified" : "20180330T194250Z",
            "measure_xml_checksum" : "25A40D75",
            "started_at" : "20180330T194323Z",
            "stderr" : "",
            "stdout" : "[openstudio.model.YearDescription] <1> 'UseWeatherFile' is not yet a supported option for YearDescription\n",
            "step_errors" : [],
            "step_files" : [],
            "step_final_condition" : "A gas grill with 30 therms annual energy consumption has been assigned to outside.",
            "step_info" : [],
            "step_result" : "Success",
            "step_values" : [
               {
                  "name" : "base_energy",
                  "value" : 30
               },
               {
                  "name" : "mult",
                  "value" : 1
               },
               {
                  "name" : "scale_energy",
                  "value" : true
               },
               {
                  "name" : "weekday_sch",
                  "value" : "0.004, 0.001, 0.001, 0.002, 0.007, 0.012, 0.029, 0.046, 0.044, 0.041, 0.044, 0.046, 0.042, 0.038, 0.049, 0.059, 0.110, 0.161, 0.115, 0.070, 0.044, 0.019, 0.013, 0.007"
               },
               {
                  "name" : "weekend_sch",
                  "value" : "0.004, 0.001, 0.001, 0.002, 0.007, 0.012, 0.029, 0.046, 0.044, 0.041, 0.044, 0.046, 0.042, 0.038, 0.049, 0.059, 0.110, 0.161, 0.115, 0.070, 0.044, 0.019, 0.013, 0.007"
               },
               {
                  "name" : "monthly_sch",
                  "value" : "1.097, 1.097, 0.991, 0.987, 0.991, 0.890, 0.896, 0.896, 0.890, 1.085, 1.085, 1.097"
               }
            ],
            "step_warnings" : []
         }
      },
      {
         "arguments" : {
            "base_energy" : "19",
            "monthly_sch" : "1.154, 1.161, 1.013, 1.010, 1.013, 0.888, 0.883, 0.883, 0.888, 0.978, 0.974, 1.154",
            "mult" : "1",
            "scale_energy" : "true",
            "weekday_sch" : "0.044, 0.023, 0.019, 0.015, 0.016, 0.018, 0.026, 0.033, 0.033, 0.032, 0.033, 0.033, 0.032, 0.032, 0.032, 0.033, 0.045, 0.057, 0.066, 0.076, 0.081, 0.086, 0.075, 0.065",
            "weekend_sch" : "0.044, 0.023, 0.019, 0.015, 0.016, 0.018, 0.026, 0.033, 0.033, 0.032, 0.033, 0.033, 0.032, 0.032, 0.032, 0.033, 0.045, 0.057, 0.066, 0.076, 0.081, 0.086, 0.075, 0.065"
         },
         "description" : "Adds (or replaces) residential gas lighting with the specified efficiency and schedule. The lighting is assumed to be outdoors. For multifamily buildings, the lighting is set for all units of the building. See https://github.com/NREL/OpenStudio-BEopt#workflows for supported workflows using this measure.",
         "measure_dir_name" : "ResidentialMiscGasLighting",
         "modeler_description" : "Since there is no Gas Lighting object in OpenStudio/EnergyPlus, we look for a GasEquipment object with the name that denotes it is residential gas lighting. If one is found, it is replaced with the specified properties. Otherwise, a new such object is added to the model. Note: This measure requires the number of bedrooms/bathrooms to have already been assigned.",
         "name" : "Set Residential Gas Lighting",
         "result" : {
            "completed_at" : "20180330T194323Z",
            "measure_class_name" : "ResidentialGasLighting",
            "measure_display_name" : "Set Residential Gas Lighting",
            "measure_name" : "residential_gas_lighting",
            "measure_taxonomy" : "Equipment.Gas Equipment",
            "measure_type" : "ModelMeasure",
            "measure_uid" : "6b9211da-6274-4b09-8c76-9edbc85886c0",
            "measure_version_id" : "5bdff8f9-098a-452b-83e1-113144db63d4",
            "measure_version_modified" : "20180330T194250Z",
            "measure_xml_checksum" : "25A40D75",
            "started_at" : "20180330T194323Z",
            "stderr" : "",
            "stdout" : "[openstudio.model.YearDescription] <1> 'UseWeatherFile' is not yet a supported option for YearDescription\n",
            "step_errors" : [],
            "step_files" : [],
            "step_final_condition" : "Gas lighting with 19 therms annual energy consumption has been assigned to outside.",
            "step_info" : [],
            "step_result" : "Success",
            "step_values" : [
               {
                  "name" : "base_energy",
                  "value" : 19
               },
               {
                  "name" : "mult",
                  "value" : 1
               },
               {
                  "name" : "scale_energy",
                  "value" : true
               },
               {
                  "name" : "weekday_sch",
                  "value" : "0.044, 0.023, 0.019, 0.015, 0.016, 0.018, 0.026, 0.033, 0.033, 0.032, 0.033, 0.033, 0.032, 0.032, 0.032, 0.033, 0.045, 0.057, 0.066, 0.076, 0.081, 0.086, 0.075, 0.065"
               },
               {
                  "name" : "weekend_sch",
                  "value" : "0.044, 0.023, 0.019, 0.015, 0.016, 0.018, 0.026, 0.033, 0.033, 0.032, 0.033, 0.033, 0.032, 0.032, 0.032, 0.033, 0.045, 0.057, 0.066, 0.076, 0.081, 0.086, 0.075, 0.065"
               },
               {
                  "name" : "monthly_sch",
                  "value" : "1.154, 1.161, 1.013, 1.010, 1.013, 0.888, 0.883, 0.883, 0.888, 0.978, 0.974, 1.154"
               }
            ],
            "step_warnings" : []
         }
      },
      {
         "arguments" : {
            "bathroom_spot_vent" : "5",
            "clothes_dryer_exhaust" : "100",
            "crawl_ach" : "0",
            "duct_ah_return_frac" : "0.267",
            "duct_ah_supply_frac" : "0.067",
            "duct_location" : "auto",
            "duct_location_frac" : "auto",
            "duct_num_returns" : "auto",
            "duct_r" : "0",
            "duct_return_area_mult" : "1",
            "duct_return_frac" : "0.067",
            "duct_supply_area_mult" : "1",
            "duct_supply_frac" : "0.6",
            "duct_total_leakage" : "0.3",
            "finished_basement_ach" : "0",
            "garage_ach50" : "7",
            "has_fireplace_chimney" : "false",
            "has_hvac_flue" : "false",
            "has_water_heater_flue" : "false",
            "is_existing_home" : "false",
            "living_ach50" : "7",
            "mech_vent_ashrae_std" : "2010",
            "mech_vent_cfis_airflow_frac" : "1",
            "mech_vent_cfis_open_time" : "20",
            "mech_vent_fan_power" : "0.15",
            "mech_vent_frac_62_2" : "1",
            "mech_vent_infil_credit" : "true",
            "mech_vent_sensible_efficiency" : "0",
            "mech_vent_total_efficiency" : "0",
            "mech_vent_type" : "exhaust",
            "nat_vent_clg_offset" : "1",
            "nat_vent_clg_season" : "true",
            "nat_vent_frac_window_area_openable" : "0.2",
            "nat_vent_frac_windows_open" : "0.33",
            "nat_vent_htg_offset" : "1",
            "nat_vent_htg_season" : "true",
            "nat_vent_max_oa_hr" : "0.0115",
            "nat_vent_max_oa_rh" : "0.7",
            "nat_vent_num_weekdays" : "3",
            "nat_vent_num_weekends" : "0",
            "nat_vent_ovlp_offset" : "1",
            "nat_vent_ovlp_season" : "true",
            "pier_beam_ach" : "100",
            "range_spot_vent" : "16",
            "shelter_coef" : "auto",
            "terrain" : "suburban",
            "unfinished_attic_sla" : "0.00333",
            "unfinished_basement_ach" : "0.1"
         },
         "description" : "Adds (or replaces) all building components related to airflow: infiltration, mechanical ventilation, natural ventilation, and ducts. See https://github.com/NREL/OpenStudio-BEopt#workflows for supported workflows using this measure.",
         "measure_dir_name" : "ResidentialAirflow",
         "modeler_description" : "Uses EMS to model the building airflow.",
         "name" : "Set Residential Airflow",
         "result" : {
            "completed_at" : "20180330T194324Z",
            "measure_class_name" : "ResidentialAirflow",
            "measure_display_name" : "Set Residential Airflow",
            "measure_name" : "residential_airflow",
            "measure_taxonomy" : "Envelope.Infiltration",
            "measure_type" : "ModelMeasure",
            "measure_uid" : "7d2adf5c-9995-49be-b662-a23d2452bb36",
            "measure_version_id" : "a94418ab-1f53-43ef-aeca-8ff365c22291",
            "measure_version_modified" : "20180330T194237Z",
            "measure_xml_checksum" : "19EEDBBB",
            "started_at" : "20180330T194323Z",
            "stderr" : "",
            "stdout" : "[openstudio.model.YearDescription] <1> 'UseWeatherFile' is not yet a supported option for YearDescription\n[openstudio.model.YearDescription] <1> 'UseWeatherFile' is not yet a supported option for YearDescription\n[openstudio.model.YearDescription] <1> 'UseWeatherFile' is not yet a supported option for YearDescription\n[openstudio.model.YearDescription] <1> 'UseWeatherFile' is not yet a supported option for YearDescription\n[openstudio.model.YearDescription] <1> 'UseWeatherFile' is not yet a supported option for YearDescription\n",
            "step_errors" : [],
            "step_files" : [],
            "step_info" : [],
            "step_result" : "Success",
            "step_values" : [
               {
                  "name" : "living_ach50",
                  "value" : 7
               },
               {
                  "name" : "garage_ach50",
                  "value" : 7
               },
               {
                  "name" : "finished_basement_ach",
                  "value" : 0
               },
               {
                  "name" : "unfinished_basement_ach",
                  "value" : 0.10000000000000001
               },
               {
                  "name" : "crawl_ach",
                  "value" : 0
               },
               {
                  "name" : "pier_beam_ach",
                  "value" : 100
               },
               {
                  "name" : "unfinished_attic_sla",
                  "value" : 0.0033300000000000001
               },
               {
                  "name" : "shelter_coef",
                  "value" : "auto"
               },
               {
                  "name" : "has_hvac_flue",
                  "value" : false
               },
               {
                  "name" : "has_water_heater_flue",
                  "value" : false
               },
               {
                  "name" : "has_fireplace_chimney",
                  "value" : false
               },
               {
                  "name" : "terrain",
                  "value" : "suburban"
               },
               {
                  "name" : "mech_vent_type",
                  "value" : "exhaust"
               },
               {
                  "name" : "mech_vent_fan_power",
                  "value" : 0.14999999999999999
               },
               {
                  "name" : "mech_vent_total_efficiency",
                  "value" : 0
               },
               {
                  "name" : "mech_vent_sensible_efficiency",
                  "value" : 0
               },
               {
                  "name" : "mech_vent_frac_62_2",
                  "value" : 1
               },
               {
                  "name" : "mech_vent_ashrae_std",
                  "value" : "2010"
               },
               {
                  "name" : "mech_vent_infil_credit",
                  "value" : true
               },
               {
                  "name" : "is_existing_home",
                  "value" : false
               },
               {
                  "name" : "range_spot_vent",
                  "value" : 16
               },
               {
                  "name" : "bathroom_spot_vent",
                  "value" : 5
               },
               {
                  "name" : "mech_vent_cfis_open_time",
                  "value" : 20
               },
               {
                  "name" : "mech_vent_cfis_airflow_frac",
                  "value" : 1
               },
               {
                  "name" : "clothes_dryer_exhaust",
                  "value" : 100
               },
               {
                  "name" : "nat_vent_htg_offset",
                  "value" : 1
               },
               {
                  "name" : "nat_vent_clg_offset",
                  "value" : 1
               },
               {
                  "name" : "nat_vent_ovlp_offset",
                  "value" : 1
               },
               {
                  "name" : "nat_vent_htg_season",
                  "value" : true
               },
               {
                  "name" : "nat_vent_clg_season",
                  "value" : true
               },
               {
                  "name" : "nat_vent_ovlp_season",
                  "value" : true
               },
               {
                  "name" : "nat_vent_num_weekdays",
                  "value" : 3
               },
               {
                  "name" : "nat_vent_num_weekends",
                  "value" : 0
               },
               {
                  "name" : "nat_vent_frac_windows_open",
                  "value" : 0.33000000000000002
               },
               {
                  "name" : "nat_vent_frac_window_area_openable",
                  "value" : 0.20000000000000001
               },
               {
                  "name" : "nat_vent_max_oa_hr",
                  "value" : 0.0115
               },
               {
                  "name" : "nat_vent_max_oa_rh",
                  "value" : 0.69999999999999996
               },
               {
                  "name" : "duct_location",
                  "value" : "auto"
               },
               {
                  "name" : "duct_total_leakage",
                  "value" : 0.29999999999999999
               },
               {
                  "name" : "duct_supply_frac",
                  "value" : 0.59999999999999998
               },
               {
                  "name" : "duct_return_frac",
                  "value" : 0.067000000000000004
               },
               {
                  "name" : "duct_ah_supply_frac",
                  "value" : 0.067000000000000004
               },
               {
                  "name" : "duct_ah_return_frac",
                  "value" : 0.26700000000000002
               },
               {
                  "name" : "duct_location_frac",
                  "value" : "auto"
               },
               {
                  "name" : "duct_num_returns",
                  "value" : "auto"
               },
               {
                  "name" : "duct_supply_area_mult",
                  "value" : 1
               },
               {
                  "name" : "duct_return_area_mult",
                  "value" : 1
               },
               {
                  "name" : "duct_r",
                  "value" : 0
               }
            ],
            "step_warnings" : []
         }
      },
      {
         "arguments" : {
            "show_debug_info" : "false"
         },
         "description" : "This measure performs HVAC sizing calculations via ACCA Manual J/S, as well as sizing calculations for ground source heat pumps and dehumidifiers. See https://github.com/NREL/OpenStudio-BEopt#workflows for supported workflows using this measure.",
         "measure_dir_name" : "ResidentialHVACSizing",
         "modeler_description" : "This measure assigns HVAC heating/cooling capacities, airflow rates, etc.",
         "name" : "Set Residential HVAC Sizing",
         "result" : {
            "completed_at" : "20180330T194325Z",
            "measure_class_name" : "ProcessHVACSizing",
            "measure_display_name" : "Set Residential HVAC Sizing",
            "measure_name" : "process_hvac_sizing",
            "measure_taxonomy" : "HVAC.HVAC Controls",
            "measure_type" : "ModelMeasure",
            "measure_uid" : "6cd70740-6ca3-4575-8b1e-663976e254d0",
            "measure_version_id" : "e53689c1-35f2-4046-a315-4fc98edf3236",
            "measure_version_modified" : "20180330T194249Z",
            "measure_xml_checksum" : "356BE47F",
            "started_at" : "20180330T194324Z",
            "stderr" : "",
            "stdout" : "[openstudio.model.YearDescription] <1> 'UseWeatherFile' is not yet a supported option for YearDescription\n",
            "step_errors" : [],
            "step_files" : [],
            "step_final_condition" : "HVAC objects updated as appropriate.",
            "step_info" : [
               "Found air source heat pump in living zone.",
               "Found air source heat pump in living zone."
            ],
            "step_result" : "Success",
            "step_values" : [
               {
                  "name" : "show_debug_info",
                  "value" : false
               }
            ],
            "step_warnings" : []
         }
      }
   ],
   "updated_at" : "20180330T194620Z"
}
